Version 4
SHEET 1 1104 680
WIRE 192 -144 160 -144
WIRE 320 -144 256 -144
WIRE 160 -64 160 -144
WIRE 192 -64 160 -64
WIRE 320 -64 320 -144
WIRE 320 -64 272 -64
WIRE 240 160 240 96
WIRE -32 176 -96 176
WIRE 80 176 48 176
WIRE 160 176 160 -64
WIRE 160 176 144 176
WIRE 208 176 160 176
WIRE 320 192 320 -64
WIRE 320 192 272 192
WIRE 384 192 320 192
WIRE -96 208 -96 176
WIRE 240 256 240 224
FLAG 240 16 0
FLAG 240 336 0
FLAG -96 288 0
FLAG 208 208 0
SYMBOL OpAmps\\opamp2 240 128 R0
SYMATTR InstName U1
SYMATTR Value UA741
SYMBOL voltage 240 240 R0
WINDOW 123 0 0 Left 0
WINDOW 39 0 0 Left 0
SYMATTR InstName V1
SYMATTR Value -12
SYMBOL voltage 240 112 R180
WINDOW 0 24 96 Left 2
WINDOW 3 24 16 Left 2
WINDOW 123 0 0 Left 0
WINDOW 39 0 0 Left 0
SYMATTR InstName V2
SYMATTR Value 12
SYMBOL voltage -96 192 R0
WINDOW 123 24 124 Left 2
WINDOW 39 0 0 Left 0
SYMATTR Value2 AC 1
SYMATTR InstName V3
SYMATTR Value SINE(0 4.5 10k)
SYMBOL res 64 160 R90
WINDOW 0 0 56 VBottom 2
WINDOW 3 32 56 VTop 2
SYMATTR InstName R1
SYMATTR Value 20k
SYMBOL cap 144 160 R90
WINDOW 0 0 32 VBottom 2
WINDOW 3 32 32 VTop 2
SYMATTR InstName C1
SYMATTR Value 10µ
SYMBOL cap 256 -160 R90
WINDOW 0 0 32 VBottom 2
WINDOW 3 32 32 VTop 2
SYMATTR InstName C2
SYMATTR Value 150p
SYMBOL res 288 -80 R90
WINDOW 0 0 56 VBottom 2
WINDOW 3 32 56 VTop 2
SYMATTR InstName R2
SYMATTR Value 20k
TEXT 336 48 Left 2 !.inc C:\\Users\\kavya\\Documents\\LTspiceXVII\\lib\\sub\\UA741.301
TEXT -40 360 Left 2 !.ac dec 10 0.5 70k
