Version 4
SHEET 1 920 680
WIRE 192 128 48 128
WIRE 304 128 192 128
WIRE 48 176 48 128
WIRE 304 176 304 128
WIRE 304 272 304 256
WIRE 448 272 304 272
WIRE 48 288 48 256
WIRE 304 288 304 272
WIRE -16 336 -128 336
WIRE 240 336 224 336
WIRE 224 352 224 336
WIRE 48 416 48 384
WIRE 176 416 48 416
WIRE 304 416 304 384
WIRE 304 416 176 416
WIRE 880 432 880 416
WIRE 176 448 176 416
FLAG 224 352 0
FLAG 176 608 0
FLAG -128 416 0
FLAG 192 48 0
SYMBOL voltage 192 144 R180
WINDOW 0 24 96 Left 2
WINDOW 3 24 16 Left 2
WINDOW 123 0 0 Left 0
WINDOW 39 0 0 Left 0
SYMATTR InstName V1
SYMATTR Value 5
SYMBOL res 32 160 R0
SYMATTR InstName R1
SYMATTR Value 2.4k
SYMBOL res 288 160 R0
SYMATTR InstName R2
SYMATTR Value 2.4k
SYMBOL npn -16 288 R0
SYMATTR InstName Q1
SYMATTR Value BC547B
SYMBOL npn 240 288 R0
SYMATTR InstName Q2
SYMATTR Value BC547B
SYMBOL res 160 432 R0
SYMATTR InstName R3
SYMATTR Value 3.3k
SYMBOL voltage 176 512 R0
WINDOW 123 0 0 Left 0
WINDOW 39 0 0 Left 0
SYMATTR InstName V2
SYMATTR Value -5
SYMBOL voltage -128 320 R0
WINDOW 123 24 124 Left 2
WINDOW 39 0 0 Left 0
SYMATTR Value2 AC 1
SYMATTR InstName V3
SYMATTR Value SINE(0 10m 1k)
TEXT -160 632 Left 2 !.tran 10m
