Version 4
SHEET 1 1788 680
WIRE -176 -128 -208 -128
WIRE -48 -128 -112 -128
WIRE -208 -48 -208 -128
WIRE -176 -48 -208 -48
WIRE -48 -48 -48 -128
WIRE -48 -48 -96 -48
WIRE 928 0 928 -16
WIRE 928 0 736 0
WIRE 736 16 736 0
WIRE 928 64 928 0
WIRE -848 80 -1136 80
WIRE -672 80 -848 80
WIRE -1248 112 -1392 112
WIRE -1136 112 -1136 80
WIRE -1136 112 -1248 112
WIRE 736 112 736 96
WIRE 736 112 672 112
WIRE 864 112 736 112
WIRE 736 128 736 112
WIRE -1392 160 -1392 112
WIRE -1136 160 -1136 112
WIRE -128 176 -128 112
WIRE -672 192 -672 160
WIRE -400 192 -672 192
WIRE -288 192 -320 192
WIRE -208 192 -208 -48
WIRE -208 192 -224 192
WIRE -160 192 -208 192
WIRE -672 208 -672 192
WIRE -48 208 -48 -48
WIRE -48 208 -96 208
WIRE 608 208 608 112
WIRE 608 208 -48 208
WIRE 928 208 928 160
WIRE 1008 208 928 208
WIRE 1120 208 1088 208
WIRE 736 224 736 192
WIRE 1120 240 1120 208
WIRE -1136 256 -1136 240
WIRE -976 256 -1136 256
WIRE -848 256 -848 160
WIRE -848 256 -912 256
WIRE -736 256 -848 256
WIRE 928 256 928 208
WIRE -1392 272 -1392 240
WIRE -1136 272 -1136 256
WIRE -128 272 -128 240
WIRE -656 304 -672 304
WIRE -560 304 -576 304
WIRE 608 304 608 208
WIRE 736 304 736 288
WIRE 736 304 672 304
WIRE 992 304 736 304
WIRE -1456 320 -1568 320
WIRE 736 320 736 304
WIRE -848 336 -848 256
WIRE -560 336 -560 304
WIRE -560 336 -672 336
WIRE -1392 400 -1392 368
WIRE -1264 400 -1392 400
WIRE -1136 400 -1136 368
WIRE -1136 400 -1264 400
WIRE 928 400 928 352
WIRE 928 400 736 400
WIRE -672 416 -848 416
WIRE -560 416 -560 400
WIRE -560 416 -672 416
WIRE -1264 432 -1264 400
WIRE -672 512 -672 416
WIRE -672 512 -1264 512
FLAG -1264 592 0
FLAG -1568 400 0
FLAG -1248 32 0
FLAG -128 32 0
FLAG -128 352 0
FLAG -160 224 0
FLAG 928 -96 0
FLAG 928 480 0
FLAG 1120 320 0
FLAG -1200 320 0
SYMBOL voltage -1248 128 R180
WINDOW 0 24 96 Left 2
WINDOW 3 24 16 Left 2
WINDOW 123 0 0 Left 0
WINDOW 39 0 0 Left 0
SYMATTR InstName V1
SYMATTR Value 5
SYMBOL res -1408 144 R0
SYMATTR InstName R1
SYMATTR Value 2.4k
SYMBOL res -1152 144 R0
SYMATTR InstName R2
SYMATTR Value 2.4k
SYMBOL npn -1456 272 R0
SYMATTR InstName Q1
SYMATTR Value BC547B
SYMBOL npn -1200 272 R0
SYMATTR InstName Q2
SYMATTR Value BC547B
SYMBOL res -1280 416 R0
SYMATTR InstName R3
SYMATTR Value 3.3k
SYMBOL voltage -1264 496 R0
WINDOW 123 0 0 Left 0
WINDOW 39 0 0 Left 0
SYMATTR InstName V2
SYMATTR Value -5
SYMBOL voltage -1568 304 R0
WINDOW 123 24 124 Left 2
WINDOW 39 0 0 Left 0
SYMATTR Value2 AC 1
SYMATTR InstName V3
SYMATTR Value SINE(0 10m 1k)
SYMBOL cap -912 240 R90
WINDOW 0 0 32 VBottom 2
WINDOW 3 32 32 VTop 2
SYMATTR InstName C1
SYMATTR Value 100µ
SYMBOL res -864 64 R0
SYMATTR InstName R4
SYMATTR Value 140k
SYMBOL res -688 64 R0
SYMATTR InstName R5
SYMATTR Value 850
SYMBOL res -864 320 R0
SYMATTR InstName R6
SYMATTR Value 17.6k
SYMBOL res -688 320 R0
SYMATTR InstName R7
SYMATTR Value 1
SYMBOL npn -736 208 R0
SYMATTR InstName Q3
SYMATTR Value BC547B
SYMBOL cap -544 400 R180
WINDOW 0 24 56 Left 2
WINDOW 3 24 8 Left 2
SYMATTR InstName C2
SYMATTR Value 800µ
SYMBOL OpAmps\\opamp2 -128 144 R0
SYMATTR InstName U1
SYMATTR Value UA741
SYMBOL voltage -128 256 R0
WINDOW 123 0 0 Left 0
WINDOW 39 0 0 Left 0
SYMATTR InstName V4
SYMATTR Value -12
SYMBOL voltage -128 128 R180
WINDOW 0 24 96 Left 2
WINDOW 3 24 16 Left 2
WINDOW 123 0 0 Left 0
WINDOW 39 0 0 Left 0
SYMATTR InstName V5
SYMATTR Value 12
SYMBOL res -304 176 R90
WINDOW 0 0 56 VBottom 2
WINDOW 3 32 56 VTop 2
SYMATTR InstName R8
SYMATTR Value 20k
SYMBOL cap -224 176 R90
WINDOW 0 0 32 VBottom 2
WINDOW 3 32 32 VTop 2
SYMATTR InstName C3
SYMATTR Value 10µ
SYMBOL cap -112 -144 R90
WINDOW 0 0 32 VBottom 2
WINDOW 3 32 32 VTop 2
SYMATTR InstName C4
SYMATTR Value 150p
SYMBOL res -80 -64 R90
WINDOW 0 0 56 VBottom 2
WINDOW 3 32 56 VTop 2
SYMATTR InstName R9
SYMATTR Value 20k
SYMBOL res -560 288 R90
WINDOW 0 0 56 VBottom 2
WINDOW 3 32 56 VTop 2
SYMATTR InstName R10
SYMATTR Value 27
SYMBOL npn 864 64 R0
SYMATTR InstName Q4
SYMATTR Value Qtip31a
SYMBOL res 720 0 R0
SYMATTR InstName R11
SYMATTR Value 1k
SYMBOL res 720 304 R0
WINDOW 3 36 68 Left 2
SYMATTR Value 1k
SYMATTR InstName R12
SYMBOL voltage 928 0 R180
WINDOW 0 24 96 Left 2
WINDOW 3 24 16 Left 2
WINDOW 123 0 0 Left 0
WINDOW 39 0 0 Left 0
SYMATTR InstName V6
SYMATTR Value 5
SYMBOL res 1104 192 R90
WINDOW 0 0 56 VBottom 2
WINDOW 3 32 56 VTop 2
SYMATTR InstName R13
SYMATTR Value 10
SYMBOL voltage 928 384 R0
WINDOW 123 0 0 Left 0
WINDOW 39 0 0 Left 0
SYMATTR InstName V7
SYMATTR Value -5
SYMBOL voltage 1120 224 R0
WINDOW 123 0 0 Left 0
WINDOW 39 0 0 Left 0
SYMATTR InstName V8
SYMATTR Value 0
SYMBOL diode 720 128 R0
SYMATTR InstName D1
SYMATTR Value 1N4148
SYMBOL diode 720 224 R0
SYMATTR InstName D2
SYMATTR Value 1N4148
SYMBOL pnp 992 352 R180
SYMATTR InstName Q5
SYMATTR Value Qtip32a
SYMBOL cap 672 96 R90
WINDOW 0 0 32 VBottom 2
WINDOW 3 32 32 VTop 2
SYMATTR InstName C5
SYMATTR Value 100µ
SYMBOL cap 672 288 R90
WINDOW 0 0 32 VBottom 2
WINDOW 3 32 32 VTop 2
SYMATTR InstName C6
SYMATTR Value 100µ
TEXT -1600 616 Left 2 !.ac dec 10 1m 70k
TEXT -32 64 Left 2 !.inc C:\\Users\\kavya\\Documents\\LTspiceXVII\\lib\\sub\\UA741.301
TEXT 1016 -40 Left 2 !.inc "C:\\Users\\kavya\\Documents\\LTspiceXVII\\lib\\sub\\tip31a.lib"
TEXT 1016 0 Left 2 !.inc "C:\\Users\\kavya\\Documents\\LTspiceXVII\\lib\\sub\\tip32a.lib"
TEXT 200 336 Left 2 !.four 10k V(N009)
